/*--------------------------------*- C++ -*----------------------------------*\
| =========                 |                                                 |
| \\      /  F ield         | OpenFOAM: The Open Source CFD Toolbox           |
|  \\    /   O peration     | Version:  v2212                                 |
|   \\  /    A nd           | Website:  www.openfoam.com                      |
|    \\/     M anipulation  |                                                 |
\*---------------------------------------------------------------------------*/
FoamFile
{
    version     2.0;
    format      ascii;
    class       volScalarField;
    object      k;
}
// * * * * * * * * * * * * * * * * * * * * * * * * * * * * * * * * * * * * * //

#include        "include/initialConditions"

dimensions      [0 2 -2 0 0 0 0];

internalField   uniform $turbulentKE;

boundaryField
{
    "(.*)"
    {
        type            inletOutlet;
        inletValue      $internalField;
        value           $internalField;
    }

    {% if wallModelk %}
    // Wall function for k 
    wallPatch
    {
        type            kLowReWallFunction;
        value           $internalField;
    }
    {% else %}
    // Fixed value for k
    wallPatch
    {
        type            fixedValue;
        value           uniform 1e-20;
    }
    {% endif %}

    symmetryPatch
    {
        type            symmetry;
    }

    #includeEtc "caseDicts/setConstraintTypes"
}


// ************************************************************************* //
