/*--------------------------------*- C++ -*----------------------------------*\
| =========                 |                                                 |
| \\      /  F ield         | OpenFOAM: The Open Source CFD Toolbox           |
|  \\    /   O peration     | Version:  v2212                                 |
|   \\  /    A nd           | Website:  www.openfoam.com                      |
|    \\/     M anipulation  |                                                 |
\*---------------------------------------------------------------------------*/
FoamFile
{
    version     2.0;
    format      ascii;
    class       dictionary;
    location    "mesh";
    object      meshDict;
}
// * * * * * * * * * * * * * * * * * * * * * * * * * * * * * * * * * * * * * //

LENGTH 1.04013;
DIAMETER 0.05815;

ROUND_TIP_X 0.00804;
ROUND_TIP_R 0.00157;

NOSE_LENGTH 0.26924;
POS_AFT_CENTER_X 1.01727;
AFT_LENGTH 0.04572;

// * * * * * * * * * * * * * * * * * * * * * * * * * * * * * * * * * * * * * //

surfaceFile "geometry.fms";
maxCellSize 0.35;
// boundaryCellSize 0.5;
// boundaryCellSizeRefinementThickness 0.5;
// minCellSize 0.0001;

// Refine the patches within the mesh
localRefinement
{
    aft_detail
    {
        additionalRefinementLevels 11;
        refinementThickness 0.002;
    }

    body_rocket
    {
        additionalRefinementLevels 8;
        refinementThickness 0.005;
    }
}

objectRefinements
{

    refinementDomain
    {
        type        box;
        additionalRefinementLevels 1;  
        
        centre      (0.0 0.0 0.0);
        
        lengthX     100;
        lengthY     100;
        lengthZ     100;
        
    }

    refinementDomainCenter
    {
        type        box;
        additionalRefinementLevels 2;  
        
        centre      (50.0 0.0 0.0);
        
        lengthX     100;
        lengthY     #calc "$DIAMETER * 17";
        lengthZ     #calc "$DIAMETER * 17";
        
    }

    refinement0
    {
        type        cone;
        additionalRefinementLevels 3;  
        
        p0      (#calc "$LENGTH / 2 + (0.2 - $LENGTH * 1.5)" 0.0 0.0);
        p1      (#calc "$LENGTH / 2 + (0.2 + $LENGTH * 1.5)" 0.0 0.0);
        
        radius0     #calc "$DIAMETER / 2 * 30";
        radius1     #calc "$DIAMETER / 2 * 30";
        
    }

    refinement1
    {
        type        cone;
        additionalRefinementLevels 5;  
        
        p0      (#calc "$LENGTH / 2 + (0.1 - $LENGTH * 1)" 0.0 0.0);
        p1      (#calc "$LENGTH / 2 + (0.1 + $LENGTH * 1)" 0.0 0.0);
        
        radius0     #calc "$DIAMETER / 2 * 12";
        radius1     #calc "$DIAMETER / 2 * 12";
        
    }

    refinement2
    {
        type        cone;
        additionalRefinementLevels 7;  
        
        p0      (#calc "$LENGTH / 2 + (-0.075 + $LENGTH * 0.575)" 0.0 0.0);
        p1      (#calc "$LENGTH / 2 + (-0.075 - $LENGTH * 0.575)" 0.0 0.0);
        
        radius0     #calc "$DIAMETER / 2 * 4.5";
        radius1     #calc "$DIAMETER / 2 * 4.5";
        
    }

    nose_length1
    {
        type        cone;
        additionalRefinementLevels 8;  
        
        p0      (#calc "$NOSE_LENGTH * 0.2 + ($NOSE_LENGTH * 0.35)" 0.0 0.0);
        p1      (#calc "$NOSE_LENGTH * 0.2 + ($NOSE_LENGTH * -0.35)" 0.0 0.0);
        
        radius0     #calc "$DIAMETER / 2";
        radius1     #calc "$DIAMETER / 2";
        
    }

    nose_length2
    {
        type        cone;
        additionalRefinementLevels 9;  
        
        p0      (#calc "- $NOSE_LENGTH * 0.08" 0.0 0.0);
        p1      (#calc "$NOSE_LENGTH * 0.7" 0.0 0.0);
        
        radius0     #calc "$DIAMETER / 2 * 0.7";
        radius1     #calc "$DIAMETER / 2 * 1.7";

    }

    nose_length3
    {
        type        cone;
        additionalRefinementLevels 10;  
        
        p0      (#calc "$NOSE_LENGTH * 0.05 + (-0.015)" 0.0 0.0);
        p1      (#calc "$NOSE_LENGTH * 0.05 + ($NOSE_LENGTH * 0.1)" 0.0 0.0);
        
        radius0     #calc "$DIAMETER / 2 * 0.4";
        radius1     #calc "$DIAMETER / 2 * 0.4";
        
    }
    
    nose_tip1
    {
        type        sphere;
        additionalRefinementLevels 11;

        centre      (#calc "$ROUND_TIP_X * 1.4" 0.0 0.0);

        radius      #calc "$ROUND_TIP_R * 6";
    }

    nose_tip2
    {
        type        sphere;
        additionalRefinementLevels 12;

        centre      (#calc "$ROUND_TIP_X" 0.0 0.0);

        radius      #calc "$ROUND_TIP_R * 3";
    }

    nose_tip3
    {
        type        sphere;
        additionalRefinementLevels 13;

        centre      (#calc "$ROUND_TIP_X" 0.0 0.0);

        radius      #calc "$ROUND_TIP_R * 1.6";
    }

    nose_tip4
    {
        type        sphere;
        additionalRefinementLevels 14;

        centre      (#calc "$ROUND_TIP_X" 0.0 0.0);

        radius      #calc "$ROUND_TIP_R * 1.175";
    }


    aft_length1
    {
        type        cone;
        additionalRefinementLevels 10;
        
        p0      (#calc "$POS_AFT_CENTER_X + $AFT_LENGTH / 2 - 0.030" 0.0 0.0);
        p1      (#calc "$POS_AFT_CENTER_X + $AFT_LENGTH / 2 + 0.020" 0.0 0.0);
        
        radius0 #calc "$DIAMETER / 2 * 0.5";
        radius1 #calc "$DIAMETER / 2 * 1.5"; 
    }

    wake_refinement
    {

        type        cone;
        additionalRefinementLevels 7;
        
        p0      (#calc "$POS_AFT_CENTER_X + $AFT_LENGTH / 2 - 0.1" 0.0 0.0);
        p1      (#calc "$POS_AFT_CENTER_X + $AFT_LENGTH / 2 + 0.5" 0.0 0.0);
        
        radius0 #calc "$DIAMETER / 2 * 3";
        radius1 #calc "$DIAMETER / 2 * 6"; 
       
    }

    wake_refinement2
    {

        type        cone;
        additionalRefinementLevels 4;
        
        p0      (#calc "$POS_AFT_CENTER_X + $AFT_LENGTH / 2" 0.0 0.0);;
        p1      (#calc "$POS_AFT_CENTER_X + $AFT_LENGTH / 2 + 1.8" 0.0 0.0);;
        
        radius0     #calc "$DIAMETER / 2 * 7";
        radius1     #calc "$DIAMETER / 2 * 7";
       
    }

    wake_refinement3
    {

        type        cone;
        additionalRefinementLevels 9;
        
        p0      (#calc "$POS_AFT_CENTER_X + $AFT_LENGTH / 2 - 0.060" 0.0 0.0);;
        p1      (#calc "$POS_AFT_CENTER_X + $AFT_LENGTH / 2 + 0.083" 0.0 0.0);;
        
        radius0     #calc "$DIAMETER / 2 * 1.75";
        radius1     #calc "$DIAMETER / 2 * 1.75";
       
    }


    start_boat_tail
    {

        type        cone;
        additionalRefinementLevels 10;
        
        p0      (#calc "$POS_AFT_CENTER_X - $AFT_LENGTH / 2 - 0.004" 0.0 0.0);;
        p1      (#calc "$POS_AFT_CENTER_X - $AFT_LENGTH / 2 + 0.006" 0.0 0.0);;
        
        radius0     #calc "$DIAMETER / 2 * 1.07";
        radius1     #calc "$DIAMETER / 2 * 1.37";
       
    }


    wake_refinement5
    {

        type        cone;
        additionalRefinementLevels 8;
        
        p0      (#calc "$POS_AFT_CENTER_X + $AFT_LENGTH / 2" 0.0 0.0);;
        p1      (#calc "$POS_AFT_CENTER_X + $AFT_LENGTH / 2 + 0.20" 0.0 0.0);;
        
        radius0     #calc "$DIAMETER / 2 * 1.35";
        radius1     #calc "$DIAMETER / 2 * 1.35";
       
    }

    wake_refinement4
    {

        type        cone;
        additionalRefinementLevels 5;
        
        p0      (#calc "$POS_AFT_CENTER_X + $AFT_LENGTH / 2" 0.0 0.0);;
        p1      (#calc "$POS_AFT_CENTER_X + $AFT_LENGTH / 2 + 1.4" 0.0 0.0);;
        
        radius0     #calc "$DIAMETER / 2 * 4";
        radius1     #calc "$DIAMETER / 2 * 4";
       
    }

    
    wake_refinement_lip1
    {

        type        cone;
        additionalRefinementLevels 12;
        
        p0      (#calc "$POS_AFT_CENTER_X + $AFT_LENGTH / 2" 0.0 0.0);;
        p1      (#calc "$POS_AFT_CENTER_X + $AFT_LENGTH / 2 - 0.0045" 0.0 0.0);;
        
        radius0     #calc "1.52*0.0254 / 2";
        radius1     #calc "1.55*0.0254 / 2";
       
    }

    wake_refinement_lip2
    {

        type        cone;
        additionalRefinementLevels 11;
        
        p0      (#calc "$POS_AFT_CENTER_X + $AFT_LENGTH / 2" 0.0 0.0);;
        p1      (#calc "$POS_AFT_CENTER_X + $AFT_LENGTH / 2 - 0.012" 0.0 0.0);;
        
        radius0     #calc "1.52*0.0254 / 2";
        radius1     #calc "1.68*0.0254 / 2";
       
    }
}

// Join separate patches in just one propellerTip
renameBoundary
{
	
	newPatchNames
	{
		body_rocket     {newName wall; type wall;}
        aft_detail      {newName wall; type wall;}
		
        xMin            {newName inlet; type patch;}
		xMax            {newName outlet; type patch;}

        yMin            {newName symmetry; type patch;}
		yMax            {newName far_field; type patch;}
        
        zMin            {newName far_field; type patch;}
		zMax            {newName far_field; type patch;}
	}

}

// Add inflation layers to the patches
boundaryLayers 
{
    
    thicknessRatio 1.2;
    nLayers 0;

    // allowDiscontinuity 0;
    
    patchBoundaryLayers
    {
        body_rocket
        {
            nLayers 15;
        }

        aft_detail
        {
            nLayers 15;
        }
    }
    
    optimiseLayer 1;
    // untangleLayers 0;

    optimisationParameters
    {
        nSmoothNormals 10;
        maxNumIterations 10;
        featureSizeFactor 0.3;
        reCalculateNormals 1;
        relThicknessTol 0.03;
        
    } 
            
}