/*--------------------------------*- C++ -*----------------------------------*\
| =========                 |                                                 |
| \\      /  F ield         | OpenFOAM: The Open Source CFD Toolbox           |
|  \\    /   O peration     | Version:  v2212                                 |
|   \\  /    A nd           | Website:  www.openfoam.com                      |
|    \\/     M anipulation  |                                                 |
\*---------------------------------------------------------------------------*/
FoamFile
{
    version     2.0;
    format      ascii;
    class       dictionary;
    object      fvSolution;
}
// * * * * * * * * * * * * * * * * * * * * * * * * * * * * * * * * * * * * * //

solvers
{
    p
    {
        solver          PCG;
        preconditioner  DIC;
        tolerance       1e-06;
        relTol          0.1;
    }

    pFinal
    {
        $p;
        tolerance       1e-06;
        relTol          0.1;
    }

    "(rho|U|e|k|omega)"
    {
        solver          smoothSolver;
        smoother        symGaussSeidel;
        tolerance       1e-05;
        relTol          0.1;
    }

    "(rho|U|e|k|omega)Final"
    {
        $U;
        tolerance       1e-05;
        relTol          0.1;
    }
}

PIMPLE
{
    momentumPredictor        yes;
    nCorrectors              2;
    nNonOrthogonalCorrectors 1;
    nOuterCorrectors         1;
    
    pMinFactor      0.1;
    pMaxFactor      2;

    maxCo                   0.2;
    rDeltaTSmoothingCoeff   0.1;
    rDeltaTDampingCoeff     1;
    maxDeltaT               1;
}


// ************************************************************************* //
