/*--------------------------------*- C++ -*----------------------------------*\
| =========                 |                                                 |
| \\      /  F ield         | OpenFOAM: The Open Source CFD Toolbox           |
|  \\    /   O peration     | Version:  v2212                                 |
|   \\  /    A nd           | Website:  www.openfoam.com                      |
|    \\/     M anipulation  |                                                 |
\*---------------------------------------------------------------------------*/
FoamFile
{
    version     2.0;
    format      ascii;
    class       dictionary;
    object      fvSchemes;
}
// * * * * * * * * * * * * * * * * * * * * * * * * * * * * * * * * * * * * * //

ddtSchemes
{
    default         localEuler; // Euler for transient, Local Time Steping (localEuler) is faster
}

gradSchemes
{
    default         cellLimited Gauss linear 1;
    grad(p)         cellLimited Gauss linear 0.333;
    grad(e)         cellLimited Gauss linear 0.333;
}

divSchemes
{
    default         none;

    div(phi,U)      Gauss vanLeerV;

    div(phi,e)      Gauss limitedLinear 1;
    div(phi,K)      Gauss linear;

    turbulence      Gauss upwind;
    div(phi,k)      $turbulence;
    div(phi,omega)  $turbulence;

    div(phiv,p)     Gauss upwind;
    div(phid,p)     Gauss limitedLinear 1;

    div(((rho*nuEff)*dev2(T(grad(U)))))    Gauss linear;
}

laplacianSchemes
{
    default         Gauss linear limited 1;
}

interpolationSchemes
{
    default         linear;
}

snGradSchemes
{
    default         limited 1;
}

wallDist
{
    method          meshWave;
}

// ************************************************************************* //
