/*--------------------------------*- C++ -*----------------------------------*\
| =========                 |                                                 |
| \\      /  F ield         | OpenFOAM: The Open Source CFD Toolbox           |
|  \\    /   O peration     | Version:  v2212                                 |
|   \\  /    A nd           | Website:  www.openfoam.com                      |
|    \\/     M anipulation  |                                                 |
\*---------------------------------------------------------------------------*/
FoamFile
{
    version     2.0;
    format      ascii;
    class       volVectorField;
    object      U;
}
// * * * * * * * * * * * * * * * * * * * * * * * * * * * * * * * * * * * * * //

#include        "include/initialConditions"

dimensions      [0 1 -1 0 0 0 0];

internalField   uniform $flowVelocity;

boundaryField
{
    wallPatch
    {
        type            noSlip;
    }

    inletPatch
    {
        type            fixedValue;
        value           $internalField;
    }

    outletPatch
    {
        type            inletOutlet;
        inletValue      $internalField;
        value           $internalField;
    }

    farFieldPatch
    {
        type            supersonicFreestream;
        pInf            $pressure;
        TInf            $temperature;
        UInf            $flowVelocity;
        gamma           1.4;
    }

    symmetryPatch
    {
        type            symmetry;
    }
}

// ************************************************************************* //
