/*--------------------------------*- C++ -*----------------------------------*\
  =========                 |
  \\      /  F ield         | OpenFOAM: The Open Source CFD Toolbox
   \\    /   O peration     | Website:  https://openfoam.org
    \\  /    A nd           | Version:  9
     \\/     M anipulation  |
\*---------------------------------------------------------------------------*/
FoamFile
{
    format      ascii;
    class       volVectorField;
    object      U;
}
// * * * * * * * * * * * * * * * * * * * * * * * * * * * * * * * * * * * * * //

#include        "include/initialConditions"

dimensions      [0 1 -1 0 0 0 0];

internalField   uniform $flowVelocity;

boundaryField
{
    wallPatch
    {
        type            noSlip;
    }

    inletPatch
    {
        type            freestreamVelocity;
        freestreamValue $internalField;
    }

    outletPatch
    {
        type            freestreamVelocity;
        freestreamValue $internalField;
    }

    farFieldPatch
    {
        type            freestreamVelocity;
        freestreamValue $internalField;
    }

    symmetryPatch
    {
        type            symmetry; // symmetryPlane might cause problems if the surface is not perfectly flat 
    }
}

// ************************************************************************* //
