/*--------------------------------*- C++ -*----------------------------------*\
| =========                 |                                                 |
| \\      /  F ield         | OpenFOAM: The Open Source CFD Toolbox           |
|  \\    /   O peration     | Version:  v2212                                 |
|   \\  /    A nd           | Website:  www.openfoam.com                      |
|    \\/     M anipulation  |                                                 |
\*---------------------------------------------------------------------------*/
FoamFile
{
    version     2.0;
    format      ascii;
    class       volScalarField;
    object      omega;
}
// * * * * * * * * * * * * * * * * * * * * * * * * * * * * * * * * * * * * * //

#include        "include/initialConditions"

dimensions      [0 0 -1 0 0 0 0];

internalField   uniform $turbulentOmega;

boundaryField
{
    "(.*)"
    {
        type            inletOutlet;
        inletValue      $internalField;
        value           $internalField;
    }

    wallPatch
    {
        type            omegaWallFunction;
        value           $internalField;
    }

    symmetryPatch
    {
        type            symmetry;
    }

    #includeEtc "caseDicts/setConstraintTypes"
}


// ************************************************************************* //
